version 2
1
9
.tran 1m 20ms{return}{return}{return}.kicad adjustpaths{return}.save all{return}.probe alli
4
2
I(RLoad1)
 
1
V(/Load)
 
1
V(Net)
 
1
V(Vin)
 
