version 2
1
9
.tran 1ms 20ms{return}{return}{return}.kicad adjustpaths{return}.save all{return}.probe alli
2
1
V(/output)
 
1
V(/signal)
 
